/*--------------------------------*- C++ -*----------------------------------*\
| =========                 |                                                 |
| \\      /  F ield         | OpenFOAM: The Open Source CFD Toolbox           |
|  \\    /   O peration     | Version:  v1912                                 |
|   \\  /    A nd           | Website:  www.openfoam.com                      |
|    \\/     M anipulation  |                                                 |
\*---------------------------------------------------------------------------*/
FoamFile
{
    version     2.0;
    format      ascii;
    class       dictionary;
    location    "constant";
    object      transportProperties;
}
// * * * * * * * * * * * * * * * * * * * * * * * * * * * * * * * * * * * * * //


// dimensionning factors - do not change these values ;
tdim              tdim     [ 0 0  1 0 0 0 0 ] 1.;
T1                T1       [ 0  0  0  1 0 0 0 ] 1.;
Kthdim            Kthdim   [ 1  1 -3 -1 0 0 0 ] 1.;

// input data for thermal transfers - values prescribed for water, icy waters
// and air;
Kthw              Kthw     [ 1  1 -3 -1 0 0 0 ] 0.6;
Kthice            Kthice   [ 1  1 -3 -1 0 0 0 ] 2.14;
Kthair            Kthair   [ 1  1 -3 -1 0 0 0 ] 0.0262;
Cthw              Cthw     [ 1 -1 -2 -1 0 0 0 ] 4182000.;
Cthice            Cthice   [ 1 -1 -2 -1 0 0 0 ] 1895200.;
Cthair            Cthair   [ 1 -1 -2 -1 0 0 0 ] 1228.08;
L                 L        [ 1 -1 -2  0 0 0 0 ] 334000000.;

// forced bounds of temperature for the considered system ;
Tminc             Tminc    [ 0  0  0  1 0 0 0 ] 268.4;
Tmaxc             Tmaxc    [ 0  0  0  1 0 0 0 ] 277.4;



// ************************************************************************* //
