/*--------------------------------*- C++ -*----------------------------------*\
| =========                 |                                                 |
| \\      /  F ield         | OpenFOAM: The Open Source CFD Toolbox           |
|  \\    /   O peration     | Version:  1.7.1                                 |
|   \\  /    A nd           | Web:      www.OpenFOAM.com                      |
|    \\/     M anipulation  |                                                 |
\*---------------------------------------------------------------------------*/
FoamFile
{
    version     2.0;
    format      ascii;
    class       dictionary;
    object      blockMeshDict;
}
// * * * * * * * * * * * * * * * * * * * * * * * * * * * * * * * * * * * * * //

convertToMeters 1;

vertices
(
    (0.        0.      1.)
    (10.       0.     -1.)
    (10.       1.     -1.)
    (0.        1.      1.)

    (0.        0.      2.)
    (10.       0.      0.)
    (10.       1.      0.)
    (0.        1.      2.)
);

blocks
(
    hex (0 1 2 3 4 5 6 7)         (50 1 85) simpleGrading (1 1 0.220377244260824)
);

edges
(
);

patches

(

    patch top
    (
        (4 5 6 7)
    )

    patch bottom
    (
        (0 1 2 3)
    )

    patch downSlope
    (
    (1 2 6 5)
    )

    patch upSlope
    (
    (0 3 7 4)
    )

    empty sides
    (

       (3 2 6 7)
       (0 1 5 4)
     )
);

mergePatchPairs
(
);

// ************************************************************************* //
