/*--------------------------------*- C++ -*----------------------------------*\
| =========                 |                                                 |
| \\      /  F ield         | OpenFOAM: The Open Source CFD Toolbox           |
|  \\    /   O peration     | Version:  1.7.1                                 |
|   \\  /    A nd           | Web:      www.OpenFOAM.com                      |
|    \\/     M anipulation  |                                                 |
\*---------------------------------------------------------------------------*/
FoamFile
{
    version     2.0;
    format      ascii;
    class       dictionary;
    location    "system";
    object      fvSchemes;
}
// * * * * * * * * * * * * * * * * * * * * * * * * * * * * * * * * * * * * * //

ddtSchemes
{
    default         backward;
}

gradSchemes
{
    default         Gauss linear;
    grad(Krel)      Gauss harmonic;
    grad(psi)       Gauss linear;
}

divSchemes
{
    default         none;
    div(phi,T) bounded Gauss limitedGamma 1. 268.4 277.4;
// Note the temperature bounds at the end of the scheme above.
}

laplacianSchemes
{
    default         none;
    laplacian(Krel,psi) Gauss harmonic corrected;
    laplacian(Kth,T) Gauss harmonic corrected;
}

interpolationSchemes
{
    default         linear;
}

snGradSchemes
{
    default         corrected;
}

// ************************************************************************* //
