/*--------------------------------*- C++ -*----------------------------------*\
| =========                 |                                                 |
| \\      /  F ield         | OpenFOAM: The Open Source CFD Toolbox           |
|  \\    /   O peration     | Version:  v1912                                 |
|   \\  /    A nd           | Website:  www.openfoam.com                      |
|    \\/     M anipulation  |                                                 |
\*---------------------------------------------------------------------------*/
FoamFile
{
    version     2.0;
    format      ascii;
    class       volScalarField;
    location    "0";
    object      n;
}
// * * * * * * * * * * * * * * * * * * * * * * * * * * * * * * * * * * * * * //

dimensions      [0 0 0 0 0 0 0];

internalField   uniform 1.2179;

boundaryField
{
    top
    {
    type            zeroGradient;
    }  

    downSlope
    {
    type            zeroGradient;
    }  

    bottom
    {
    type            zeroGradient;   
    }

    upSlope
    {
    type            zeroGradient;
    }   

    sides
    {
    type            empty;
    }
}


// ************************************************************************* //
