/*--------------------------------*- C++ -*----------------------------------*\
| =========                 |                                                 |
| \\      /  F ield         | OpenFOAM: The Open Source CFD Toolbox           |
|  \\    /   O peration     | Version:  v1912                                 |
|   \\  /    A nd           | Website:  www.openfoam.com                      |
|    \\/     M anipulation  |                                                 |
\*---------------------------------------------------------------------------*/
FoamFile
{
    version     2.0;
    format      ascii;
    class       dictionary;
    location    "system";
    object      controlDict;
}
// * * * * * * * * * * * * * * * * * * * * * * * * * * * * * * * * * * * * * //

libs    ( "libhydrology.so" );

application     permaFoam;

startFrom       startTime;

startTime       0;

stopAt          endTime;

endTime         2628000.;

deltaT          1.;

writeControl    adjustableRunTime;

writeInterval   657000.;

purgeWrite      0;

writeFormat     ascii;

writePrecision  6;

writeCompression off;

timeFormat      fixed;

timePrecision   0;

runTimeModifiable yes;

adjustTimeStep  yes;

maxDeltaT       3600;

#includeIfPresent "statistics"

// ************************************************************************* //
