/*--------------------------------*- C++ -*----------------------------------*\
| =========                 |                                                 |
| \\      /  F ield         | OpenFOAM: The Open Source CFD Toolbox           |
|  \\    /   O peration     | Version:  1.7.x                                 |
|   \\  /    A nd           | Web:      www.OpenFOAM.com                      |
|    \\/     M anipulation  |                                                 |
\*---------------------------------------------------------------------------*/
FoamFile
{
    version     2.0;
    format      ascii;
    class       surfaceScalarField;
    location    "0";
    object      psi_F;
}
// * * * * * * * * * * * * * * * * * * * * * * * * * * * * * * * * * * * * * //

dimensions      [0 1 0 0 0 0 0];

internalField   uniform 0.;

boundaryField
{
    top
    {
        type            calculated;
        value           uniform 0.;
     }
    bottom
    {
        type            calculated;
        value           uniform 0.;
    }
    upSlope
    {
        type            calculated;
        value           uniform 0.;
     }
    downSlope
    {
        type            calculated;
        value           uniform 0.;
    }
  
    sides
    {
        type            empty;
    }
}


// ************************************************************************* //
